Circuit: * C:\Users\Matt\Documents\APEX\phone logic shift.asc

Direct Newton iteration for .op point succeeded.

Date: Sat Jul 10 15:45:21 2010
Total elapsed time: 0.196 seconds.

tnom = 27
temp = 27
method = modified trap
totiter = 2584
traniter = 2579
tranpoints = 1197
accept = 1184
rejected = 13
matrix size = 6
fillins = 0
solver = Normal
Matrix Compiler1: 146 bytes object code size  1.6/1.4/[1.4]
Matrix Compiler2: 380 bytes object code size  2.1/1.6/[1.5]


